Circuit: * C:\Users\Jerri\OneDrive - Stellenbosch University\3rd Year EE\E Design 344\E344\Python\Assignment3\E344_A3_temp.asc

V1: Removing PWL point (0.001,1.34)
Early termination of direct N-R iteration.
Direct Newton iteration failed to find .op point.  (Use ".option noopiter" to skip.)
Starting Gmin stepping
Gmin = 10
vernier = 0.5
vernier = 0.25
vernier = 0.125
Gmin = 6.68666
vernier = 0.0625
vernier = 0.03125
vernier = 0.015625
vernier = 0.0078125
Gmin = 6.72377
vernier = 0.00390625
vernier = 0.00195313
vernier = 0.000976563
vernier = 0.000488281
Gmin = 6.72131
Gmin = 0
Gmin stepping failed

Starting source stepping with srcstepmethod=0
Source Step = 3.0303%
vernier = 0.25
Source Step = 1.70455%
Source Step = 3.59848%
Source Step = 5.49242%
Source Step = 7.38636%
Source Step = 9.2803%
vernier = 0.09375
Source Step = 11.9318%
Source Step = 14.7727%
Source Step = 17.6136%
Source Step = 20.4545%
Source Step = 23.2955%
vernier = 0.140625
Source Step = 27.1307%
Source Step = 30.6463%
vernier = 0.00878906
Source Step = 30.5997%
Source Step = 30.6663%
Source Step = 30.7329%
Source Step = 30.7994%
Source Step = 30.866%
vernier = 0.0032959
Source Step = 30.9393%
Source Step = 31.0392%
Source Step = 31.139%
Source Step = 31.2389%
Source Step = 31.3388%
vernier = 0.00494385
Source Step = 31.4436%
Source Step = 31.5935%
Source Step = 31.7433%
Source Step = 31.8931%
Source Step = 32.0429%
Source Step = 32.1927%
vernier = 0.00741577
Source Step = 32.4174%
Source Step = 32.6422%
Source Step = 32.8669%
Source Step = 33.0916%
Source Step = 33.3163%
vernier = 0.0111237
Source Step = 33.6422%
Source Step = 33.9792%
Source Step = 34.3163%
Source Step = 34.6534%
Source Step = 34.9905%
vernier = 0.0166855
Source Step = 35.4624%
Source Step = 35.968%
Source Step = 36.4736%
Source Step = 36.9793%
Source Step = 37.4849%
vernier = 0.0250282
Source Step = 38.1675%
Source Step = 38.9259%
Source Step = 39.6843%
Source Step = 40.4428%
Source Step = 41.2012%
vernier = 0.0375423
Source Step = 42.1872%
Source Step = 43.3248%
Source Step = 44.4624%
Source Step = 45.6001%
Source Step = 46.7377%
vernier = 0.0563135
Source Step = 48.1598%
Source Step = 49.8663%
Source Step = 51.5727%
Source Step = 53.2792%
Source Step = 54.9857%
vernier = 0.0844703
Source Step = 57.0334%
Source Step = 59.5931%
Source Step = 62.1529%
Source Step = 64.7126%
Source Step = 67.2723%
vernier = 0.126705
Source Step = 70.2159%
Source Step = 74.0555%
Source Step = 77.895%
Source Step = 81.7346%
Source Step = 85.5742%
vernier = 0.190058
Source Step = 89.7977%
Source Step = 95.557%
Source Step = 95.62%
Source Step = 95.71%
Source Step = 95.8%
Source Step = 95.89%
Source Step = 95.98%
Source Step = 96.0699%
Source Step = 96.1599%
Source Step = 96.2499%
Source Step = 96.3399%
Source Step = 96.4299%
Source Step = 96.5199%
Source Step = 96.6099%
Source Step = 96.6999%
Source Step = 96.7899%
Source Step = 96.8799%
Source Step = 96.9698%
Source Step = 97.0598%
Source Step = 97.1498%
Source Step = 97.2398%
Source Step = 97.3298%
Source Step = 97.4198%
Source Step = 97.5098%
Source Step = 97.5998%
Source Step = 97.6898%
Source Step = 97.7798%
Source Step = 97.8697%
Source Step = 97.9597%
Source Step = 98.0497%
Source Step = 98.1397%
Source Step = 98.2297%
Source Step = 98.3197%
Source Step = 98.4097%
Source Step = 98.4997%
Source Step = 98.5897%
Source Step = 98.6796%
Source Step = 98.7696%
Source Step = 98.8596%
Source Step = 98.9496%
Source Step = 99.0396%
Source Step = 99.1296%
Source Step = 99.2196%
Source Step = 99.3096%
Source Step = 99.3996%
Source Step = 99.4896%
Source Step = 99.5795%
Source Step = 99.6695%
Source Step = 99.7595%
Source Step = 99.8495%
Source Step = 99.9395%
Source Step = 100%
Source Step = 100%
Starting source stepping with srcstepmethod=1
Source Step = 3.0303%
Source Step = 11.4583%
vernier = 0.00390625
Source stepping failed

Pseudo transient terminated at 101.432 s, solution accepted ready or not!

Date: Fri Oct 16 11:49:44 2020
Total elapsed time: 22.700 seconds.

tnom = 27
temp = 27
method = modified trap
totiter = 438671
traniter = 391076
tranpoints = 66283
accept = 49723
rejected = 16630
matrix size = 186
fillins = 698
solver = Normal
Thread vector: 28.4/20.8[4] 4.6/2.6[4] 11.1/8.7[4] 1.6/6.5[1]  2592/500
Matrix Compiler1: 81.59 KB object code size  12.4/4.5/[3.3]
Matrix Compiler2: 27.86 KB object code size  5.0/6.3/[3.3]

