Circuit: * C:\Users\Jerri\OneDrive - Stellenbosch University\3rd Year EE\E Design 344\E344\LTSpice\Draft1.asc

.OP point found by inspection.

Date: Sun Aug 16 17:21:12 2020
Total elapsed time: 2.153 seconds.

tnom = 27
temp = 27
method = modified trap
totiter = 1000040
traniter = 1000040
tranpoints = 500021
accept = 500021
rejected = 0
matrix size = 3
fillins = 0
solver = Normal
Matrix Compiler1: off  [0.0]/0.0/0.0
Matrix Compiler2: 175 bytes object code size  0.0/0.0/[0.0]

