Circuit: * C:\Users\Jerri\OneDrive - Stellenbosch University\3rd Year EE\E Design 344\E344\LTSpice\Marais_21642818_A1 - Copy.asc

V2: Removing PWL point (0.199,1.34)
WARNING: Less than two connections to node STIMULUS.  This node is used by V3.
Direct Newton iteration failed to find .op point.  (Use ".option noopiter" to skip.)
Starting Gmin stepping
Gmin = 10
Gmin = 1.07374
Gmin = 0.115292
Gmin = 0.0123794
Gmin = 0.00132923
Gmin = 0.000142725
Gmin = 1.5325e-005
vernier = 0.5
vernier = 0.666667
Gmin = 4.6652e-006
vernier = 0.888888
Gmin = 7.9138e-007
vernier = 1
Gmin = 8.6905e-008
Gmin = 9.33136e-009
Gmin = 1.00195e-009
Gmin = 1.07583e-010
Gmin = 1.15517e-011
Gmin = 1.24035e-012
Gmin = 1.33182e-013
Gmin = 0
Gmin stepping succeeded in finding the operating point.


pout: AVG(v(5v)*i(r_load))=0.500554 FROM 0 TO 0.1
pin: AVG(-v(9v)*i(r_sense))=0.945436 FROM 0 TO 0.1
eff: pout/pin=0.529442
iout: AVG(i(r_load))=0.100055 FROM 0 TO 0.1
iin: AVG(-i(r_sense))=0.105061 FROM 0 TO 0.1


Date: Sun Aug 16 14:15:14 2020
Total elapsed time: 0.116 seconds.

tnom = 27
temp = 27
method = modified trap
totiter = 1096
traniter = 440
tranpoints = 221
accept = 145
rejected = 76
matrix size = 36
fillins = 64
solver = Normal
Matrix Compiler1: 8.21 KB object code size  1.4/0.8/[0.5]
Matrix Compiler2: 4.35 KB object code size  0.4/0.4/[0.3]

