Circuit: * C:\Users\Jerri\OneDrive - Stellenbosch University\3rd Year EE\E Design 344\E344\LTSpice\Marais_21642818_A1.asc

Early termination of direct N-R iteration.
Direct Newton iteration failed to find .op point.  (Use ".option noopiter" to skip.)
Starting Gmin stepping
Gmin = 10
vernier = 0.5
vernier = 0.25
vernier = 0.125
Gmin = 5.5165
vernier = 0.0625
vernier = 0.03125
vernier = 0.015625
vernier = 0.0078125
Gmin = 5.49501
vernier = 0.00390625
vernier = 0.00195313
vernier = 0.000976563
vernier = 0.000488281
Gmin = 5.50104
Gmin = 0
Gmin stepping failed

Starting source stepping with srcstepmethod=0
Source Step = 3.0303%
vernier = 0.25
Source Step = 7.57576%
Source Step = 15.1515%
Source Step = 22.7273%
Source Step = 30.303%
vernier = 0.0625
Source Step = 29.5662%
Source Step = 29.5958%
Source Step = 29.6254%
Source Step = 29.6549%
Source Step = 29.6845%
Source Step = 29.7141%
vernier = 0.00146484
Source Step = 29.7585%
Source Step = 29.8029%
Source Step = 29.8473%
Source Step = 29.8917%
Source Step = 29.9361%
vernier = 0.00219727
Source Step = 30.0004%
Source Step = 30.067%
Source Step = 30.1336%
Source Step = 30.2002%
Source Step = 30.2668%
vernier = 0.0032959
Source Step = 30.36%
Source Step = 30.4599%
Source Step = 30.5597%
Source Step = 30.6596%
Source Step = 30.7595%
vernier = 0.00494385
Source Step = 30.8943%
Source Step = 31.0441%
Source Step = 31.194%
Source Step = 31.3438%
Source Step = 31.4936%
vernier = 0.00741577
Source Step = 31.6883%
Source Step = 31.9131%
Source Step = 32.1378%
Source Step = 32.3625%
Source Step = 32.5872%
vernier = 0.0111237
Source Step = 32.8681%
Source Step = 33.2052%
Source Step = 33.5423%
Source Step = 33.8794%
Source Step = 34.2164%
vernier = 0.0166855
Source Step = 34.6209%
Source Step = 35.1266%
Source Step = 35.6322%
Source Step = 36.1378%
Source Step = 36.6434%
vernier = 0.0250282
Source Step = 37.2249%
Source Step = 37.9833%
Source Step = 38.7418%
Source Step = 39.5002%
Source Step = 40.2586%
vernier = 0.0375423
Source Step = 41.0929%
Source Step = 42.2305%
Source Step = 43.3682%
Source Step = 44.5058%
Source Step = 45.6435%
vernier = 0.0563135
Source Step = 46.838%
Source Step = 48.5445%
Source Step = 50.2509%
Source Step = 51.9574%
Source Step = 53.6639%
Source Step = 55.3704%
vernier = 0.0844703
Source Step = 57.9301%
Source Step = 60.4898%
Source Step = 63.0495%
Source Step = 65.6092%
Source Step = 68.1689%
vernier = 0.126705
Source Step = 71.8805%
Source Step = 75.72%
Source Step = 79.5596%
Source Step = 83.3991%
Source Step = 87.2387%
vernier = 0.190058
Source Step = 92.6141%
Source Step = 94.9448%
Source Step = 95.0348%
Source Step = 95.1248%
Source Step = 95.2148%
Source Step = 95.3048%
Source Step = 95.3947%
Source Step = 95.4847%
Source Step = 95.5747%
Source Step = 95.6647%
Source Step = 95.7547%
Source Step = 95.8447%
Source Step = 95.9347%
Source Step = 96.0247%
Source Step = 96.1147%
Source Step = 96.2047%
Source Step = 96.2946%
Source Step = 96.3846%
Source Step = 96.4746%
Source Step = 96.5646%
Source Step = 96.6546%
Source Step = 96.7446%
Source Step = 96.8346%
Source Step = 96.9246%
Source Step = 97.0146%
Source Step = 97.1046%
Source Step = 97.1945%
Source Step = 97.2845%
Source Step = 97.3745%
Source Step = 97.4645%
Starting source stepping with srcstepmethod=1
Source Step = 3.0303%
Source Step = 6.68797%
Source stepping failed

Pseudo Transient failed in finding the operating point at 114.084 ms.
Trouble finding operating point....skipping operating point for Transient analysis.
Changing Tseed to 1e-007
Changing Tseed to 1e-009
Changing Tseed to 1e-006
Changing Tseed to 1e-010
Changing Tseed to 1e-005
Changing Tseed to 1e-011
Changing Tseed to 0.0001
Changing Tseed to 1e-012
Changing Tseed to 0.001
Changing Tseed to 1e-013
Changing Tseed to 0.01
Changing Tseed to 1e-014
Fatal Error: Analysis:  Time step too small; initial timepoint: trouble with u2:jx-instance j:u2:2

