Circuit: * C:\Users\Jerri\OneDrive - Stellenbosch University\3rd Year EE\E Design 344\E344\LTSpice\Ass2ASCTemplate\21642818_Marais.asc

WARNING: Less than two connections to node STIMULUS.  This node is used by V3.
Early termination of direct N-R iteration.
Direct Newton iteration failed to find .op point.  (Use ".option noopiter" to skip.)
Starting Gmin stepping
Gmin = 10
vernier = 0.5
vernier = 0.25
vernier = 0.125
Gmin = 5.5165
vernier = 0.0625
vernier = 0.03125
vernier = 0.015625
vernier = 0.0078125
Gmin = 5.49501
vernier = 0.00390625
vernier = 0.00195313
vernier = 0.000976563
vernier = 0.000488281
Gmin = 5.50104
Gmin = 0
Gmin stepping failed

Starting source stepping with srcstepmethod=0
Source Step = 3.0303%
vernier = 0.25
Source Step = 7.57576%
Source Step = 15.1515%
Source Step = 22.7273%
Source Step = 30.303%
vernier = 0.0625
Source Step = 29.5662%
Source Step = 29.5958%
Source Step = 29.6254%
Source Step = 29.6549%
Source Step = 29.6845%
vernier = 0.00146484
Source Step = 29.7201%
Source Step = 29.7644%
Source Step = 29.8088%
Source Step = 29.8532%
Source Step = 29.8976%
vernier = 0.00219727
Source Step = 29.9487%
Source Step = 30.0152%
Source Step = 30.0818%
Source Step = 30.1484%
Source Step = 30.215%
vernier = 0.0032959
Source Step = 30.2882%
Source Step = 30.3881%
Source Step = 30.488%
Source Step = 30.5879%
Source Step = 30.6877%
vernier = 0.00494385
Source Step = 30.7926%
Source Step = 30.9424%
Source Step = 31.0922%
Source Step = 31.242%
Source Step = 31.3919%
Source Step = 31.5417%
vernier = 0.00741577
Source Step = 31.7664%
Source Step = 31.9911%
Source Step = 32.2158%
Source Step = 32.4406%
Source Step = 32.6653%
vernier = 0.0111237
Source Step = 32.9911%
Source Step = 33.3282%
Source Step = 33.6653%
Source Step = 34.0024%
Source Step = 34.3394%
vernier = 0.0166855
Source Step = 34.8114%
Source Step = 35.317%
Source Step = 35.8226%
Source Step = 36.3282%
Source Step = 36.8338%
vernier = 0.0250282
Source Step = 37.5164%
Source Step = 38.2749%
Source Step = 39.0333%
Source Step = 39.7917%
Source Step = 40.5502%
vernier = 0.0375423
Source Step = 41.5361%
Source Step = 42.6738%
Source Step = 43.8114%
Source Step = 44.9491%
Source Step = 46.0867%
vernier = 0.0563135
Source Step = 47.5088%
Source Step = 49.2152%
Source Step = 50.9217%
Source Step = 52.6282%
Source Step = 54.3346%
vernier = 0.0844703
Source Step = 56.3824%
Source Step = 58.9421%
Source Step = 61.5018%
Source Step = 64.0615%
Source Step = 66.6212%
vernier = 0.126705
Source Step = 69.5649%
Source Step = 73.4044%
Source Step = 77.244%
Source Step = 81.0836%
Source Step = 84.9231%
vernier = 0.190058
Source Step = 89.1466%
Source Step = 90.3435%
Source Step = 90.4335%
Source Step = 90.5235%
Source Step = 90.6135%
Source Step = 90.7034%
Source Step = 90.7934%
Source Step = 90.8834%
Source Step = 90.9734%
Source Step = 91.0634%
Source Step = 91.1534%
Source Step = 91.2434%
Source Step = 91.3334%
Source Step = 91.4234%
Source Step = 91.5134%
Source Step = 91.6033%
Source Step = 91.6933%
Source Step = 91.7833%
Source Step = 91.8733%
Source Step = 91.9633%
Source Step = 92.0533%
Source Step = 92.1433%
Starting source stepping with srcstepmethod=1
Source Step = 3.0303%
vernier = 0.25
Source Step = 2.85275%
vernier = 0.000976563
Source stepping failed

Pseudo transient terminated at 101.82 s, solution accepted ready or not!
Heightened Def Con from 0.114692 to 0.114692
Heightened Def Con from 0.306229 to 0.306229
Heightened Def Con from 0.306229 to 0.306229
Heightened Def Con from 1.16112 to 1.16112
Heightened Def Con from 1.16112 to 1.16112
Heightened Def Con from 1.472 to 1.472
Heightened Def Con from 2.70897 to 2.70897
Heightened Def Con from 3.46919 to 3.46919
Heightened Def Con from 3.90719 to 3.90719
Heightened Def Con from 4.73071 to 4.73071
Heightened Def Con from 4.73071 to 4.73071
Heightened Def Con from 5.11096 to 5.11096
Heightened Def Con from 5.11096 to 5.11096
Heightened Def Con from 5.92434 to 5.92434
Heightened Def Con from 6.3978 to 6.3978

i(r_sense)=30.0005 FROM 0 TO 30.0005


Date: Sun Oct 18 22:05:38 2020
Total elapsed time: 26.804 seconds.

tnom = 27
temp = 27
method = modified trap
totiter = 333895
traniter = 258274
tranpoints = 95833
accept = 88562
rejected = 9058
matrix size = 241
fillins = 1259
solver = Normal
Matrix Compiler1:    8379 opcodes  32.5/[12.7]/20.3
Matrix Compiler2: 41.95 KB object code size  7.4/6.6/[2.5]

