Circuit: * C:\Users\Jerri\Desktop\Assignment2\Filters.asc

Direct Newton iteration for .op point succeeded.

Date: Sun Sep 27 21:19:12 2020
Total elapsed time: 0.127 seconds.

tnom = 27
temp = 27
method = trap
totiter = 25
traniter = 0
tranpoints = 0
accept = 0
rejected = 0
matrix size = 33
fillins = 53
solver = Normal
Matrix Compiler1:     252 opcodes
Matrix Compiler2: 3.50 KB object code size
